
Note: No compatibility mode selected!


Circuit: * 4×4 resistive crossbar matrix–vector multiplication example

Doing analysis at TEMP = 27.000000 and TNOM = 27.000000

Using SPARSE 1.3 as Direct Linear Solver

No. of Data Rows : 1
Error: unrecognized analysis type 'op' for the following .meas statement on line 40:
       .meas op iout1 find i(vcol1)
Error: unrecognized analysis type 'op' for the following .meas statement on line 41:
       .meas op iout2 find i(vcol2)
Error: unrecognized analysis type 'op' for the following .meas statement on line 42:
       .meas op iout3 find i(vcol3)
Error: unrecognized analysis type 'op' for the following .meas statement on line 43:
       .meas op iout4 find i(vcol4)
Error: unrecognized analysis type 'op' for the following .meas statement on line 40:
       .meas op iout1 find i(vcol1)
Error: unrecognized analysis type 'op' for the following .meas statement on line 41:
       .meas op iout2 find i(vcol2)
Error: unrecognized analysis type 'op' for the following .meas statement on line 42:
       .meas op iout3 find i(vcol3)
Error: unrecognized analysis type 'op' for the following .meas statement on line 43:
       .meas op iout4 find i(vcol4)

        Node                                  Voltage
        ----                                  -------
        ----    -------
        col4                             0.000000e+00
        col3                             0.000000e+00
        col2                             0.000000e+00
        col1                             0.000000e+00
        row4                             4.000000e-01
        row3                             3.000000e-01
        row2                             2.000000e-01
        row1                             1.000000e-01

        Source  Current
        ------  -------

        v1#branch                        -2.08333e-05
        v2#branch                        -3.14921e-05
        v3#branch                        -5.51542e-05
        v4#branch                        -5.53676e-05
        vcol1#branch                     7.055556e-05
        vcol2#branch                     4.092208e-05
        vcol3#branch                     2.894893e-05
        vcol4#branch                     2.242063e-05

 Resistor models (Simple linear resistor)
      model                     R

        rsh                     0
     narrow                     0
      short                     0
        tc1                     0
        tc2                     0
        tce                     0
       defw                 1e-05
          l                 1e-05
         kf                     0
         af                     0
          r                     0
     bv_max                 1e+99
         lf                     1
         wf                     1
         ef                     1

 Resistor: Simple linear resistor
     device                   r44                   r43                   r42
      model                     R                     R                     R
 resistance                 48000                 38000                 28000
         ac                 48000                 38000                 28000
      dtemp                     0                     0                     0
     bv_max                 1e+99                 1e+99                 1e+99
      noisy                     1                     1                     1
          i           8.33333e-06           1.05263e-05           1.42857e-05
          p           3.33333e-06           4.21053e-06           5.71429e-06

 Resistor: Simple linear resistor
     device                   r41                   r34                   r33
      model                     R                     R                     R
 resistance                 18000                 42000                 32000
         ac                 18000                 42000                 32000
      dtemp                     0                     0                     0
     bv_max                 1e+99                 1e+99                 1e+99
      noisy                     1                     1                     1
          i           2.22222e-05           7.14286e-06             9.375e-06
          p           8.88889e-06           2.14286e-06            2.8125e-06

 Resistor: Simple linear resistor
     device                   r32                   r31                   r24
      model                     R                     R                     R
 resistance                 22000                 12000                 45000
         ac                 22000                 12000                 45000
      dtemp                     0                     0                     0
     bv_max                 1e+99                 1e+99                 1e+99
      noisy                     1                     1                     1
          i           1.36364e-05               2.5e-05           4.44444e-06
          p           4.09091e-06               7.5e-06           8.88889e-07

 Resistor: Simple linear resistor
     device                   r23                   r22                   r21
      model                     R                     R                     R
 resistance                 35000                 25000                 15000
         ac                 35000                 25000                 15000
      dtemp                     0                     0                     0
     bv_max                 1e+99                 1e+99                 1e+99
      noisy                     1                     1                     1
          i           5.71429e-06                 8e-06           1.33333e-05
          p           1.14286e-06               1.6e-06           2.66667e-06

 Resistor: Simple linear resistor
     device                   r14                   r13                   r12
      model                     R                     R                     R
 resistance                 40000                 30000                 20000
         ac                 40000                 30000                 20000
      dtemp                     0                     0                     0
     bv_max                 1e+99                 1e+99                 1e+99
      noisy                     1                     1                     1
          i               2.5e-06           3.33333e-06                 5e-06
          p               2.5e-07           3.33333e-07                 5e-07

 Resistor: Simple linear resistor
     device                   r11
      model                     R
 resistance                 10000
         ac                 10000
      dtemp                     0
     bv_max                 1e+99
      noisy                     1
          i                 1e-05
          p                 1e-06

 Vsource: Independent voltage source
     device                 vcol4                 vcol3                 vcol2
         dc                     0                     0                     0
      acmag                     0                     0                     0
      pulse         -         -         -
        sin         -         -         -
        exp         -         -         -
        pwl         -         -         -
       sffm         -         -         -
         am         -         -         -
    trnoise         -         -         -
   trrandom         -         -         -
    portnum                     0                     0                     0
         z0                     0                     0                     0
        pwr                     0                     0                     0
       freq                     0                     0                     0
      phase                     0                     0                     0
          i           2.24206e-05           2.89489e-05           4.09221e-05
          p                     0                     0                     0

 Vsource: Independent voltage source
     device                 vcol1                    v4                    v3
         dc                     0                   0.4                   0.3
      acmag                     0                     0                     0
      pulse         -         -         -
        sin         -         -         -
        exp         -         -         -
        pwl         -         -         -
       sffm         -         -         -
         am         -         -         -
    trnoise         -         -         -
   trrandom         -         -         -
    portnum                     0                     0                     0
         z0                     0                     0                     0
        pwr                     0                     0                     0
       freq                     0                     0                     0
      phase                     0                     0                     0
          i           7.05556e-05          -5.53676e-05          -5.51542e-05
          p                     0           -2.2147e-05          -1.65463e-05

 Vsource: Independent voltage source
     device                    v2                    v1
         dc                   0.2                   0.1
      acmag                     0                     0
      pulse         -         -
        sin         -         -
        exp         -         -
        pwl         -         -
       sffm         -         -
         am         -         -
    trnoise         -         -
   trrandom         -         -
    portnum                     0                     0
         z0                     0                     0
        pwr                     0                     0
       freq                     0                     0
      phase                     0                     0
          i          -3.14921e-05          -2.08333e-05
          p          -6.29841e-06          -2.08333e-06

        * 4×4 resistive crossbar matrix–vector multiplication example
        Operating Point  Wed May  7 15:01:33  2025
--------------------------------------------------------------------------------
Index   vcol1#branch    vcol2#branch    vcol3#branch    vcol4#branch    
--------------------------------------------------------------------------------
0       7.055556e-05    4.092208e-05    2.894893e-05    2.242063e-05


Total analysis time (seconds) = 0.001486

Total elapsed time (seconds) = 0.024 

Total DRAM available = 8192.000 MB.
DRAM currently available =  115.547 MB.
Maximum ngspice program size =    6.672 MB.
Current ngspice program size =    6.672 MB.